RTS96-1_powersystem.raw
 0,  100.000000
rts96_spring_wday.raw / File written by to_psse.gms
5 / 19 / 2015
101, ' 101 ',138,2,1,1,1,1.00,0.00,1.1,0.9,1.1,0.9
102, ' 102 ',138,2,1,1,1,1.00,0.00,1.1,0.9,1.1,0.9
103, ' 103 ',138,1,1,1,1,1.00,0.00,1.1,0.9,1.1,0.9
104, ' 104 ',138,1,1,1,1,1.00,0.00,1.1,0.9,1.1,0.9
105, ' 105 ',138,1,1,1,1,1.00,0.00,1.1,0.9,1.1,0.9
106, ' 106 ',138,1,1,1,1,1.00,0.00,1.1,0.9,1.1,0.9
107, ' 107 ',138,2,1,1,1,1.00,0.00,1.1,0.9,1.1,0.9
108, ' 108 ',138,1,1,1,1,1.00,0.00,1.1,0.9,1.1,0.9
109, ' 109 ',138,1,1,1,1,1.00,0.00,1.1,0.9,1.1,0.9
110, ' 110 ',138,1,1,1,1,1.00,0.00,1.1,0.9,1.1,0.9
111, ' 111 ',230,1,1,1,1,1.00,0.00,1.1,0.9,1.1,0.9
112, ' 112 ',230,1,1,1,1,1.00,0.00,1.1,0.9,1.1,0.9
113, ' 113 ',230,3,1,1,1,1.00,0.00,1.1,0.9,1.1,0.9
114, ' 114 ',230,2,1,1,1,1.00,0.00,1.1,0.9,1.1,0.9
115, ' 115 ',230,2,1,1,1,1.00,0.00,1.1,0.9,1.1,0.9
116, ' 116 ',230,2,1,1,1,1.00,0.00,1.1,0.9,1.1,0.9
117, ' 117 ',230,1,1,1,1,1.00,0.00,1.1,0.9,1.1,0.9
118, ' 118 ',230,2,1,1,1,1.00,0.00,1.1,0.9,1.1,0.9
119, ' 119 ',230,1,1,1,1,1.00,0.00,1.1,0.9,1.1,0.9
120, ' 120 ',230,1,1,1,1,1.00,0.00,1.1,0.9,1.1,0.9
121, ' 121 ',230,2,1,1,1,1.00,0.00,1.1,0.9,1.1,0.9
122, ' 122 ',230,2,1,1,1,1.00,0.00,1.1,0.9,1.1,0.9
123, ' 123 ',230,2,1,1,1,1.00,0.00,1.1,0.9,1.1,0.9
124, ' 124 ',230,1,1,1,1,1.00,0.00,1.1,0.9,1.1,0.9
201, ' 201 ',138,2,1,1,1,1.00,0.00,1.1,0.9,1.1,0.9
202, ' 202 ',138,2,1,1,1,1.00,0.00,1.1,0.9,1.1,0.9
203, ' 203 ',138,1,1,1,1,1.00,0.00,1.1,0.9,1.1,0.9
204, ' 204 ',138,1,1,1,1,1.00,0.00,1.1,0.9,1.1,0.9
205, ' 205 ',138,1,1,1,1,1.00,0.00,1.1,0.9,1.1,0.9
206, ' 206 ',138,1,1,1,1,1.00,0.00,1.1,0.9,1.1,0.9
207, ' 207 ',138,2,1,1,1,1.00,0.00,1.1,0.9,1.1,0.9
208, ' 208 ',138,1,1,1,1,1.00,0.00,1.1,0.9,1.1,0.9
209, ' 209 ',138,1,1,1,1,1.00,0.00,1.1,0.9,1.1,0.9
210, ' 210 ',138,1,1,1,1,1.00,0.00,1.1,0.9,1.1,0.9
211, ' 211 ',230,1,1,1,1,1.00,0.00,1.1,0.9,1.1,0.9
212, ' 212 ',230,1,1,1,1,1.00,0.00,1.1,0.9,1.1,0.9
213, ' 213 ',230,2,1,1,1,1.00,0.00,1.1,0.9,1.1,0.9
214, ' 214 ',230,2,1,1,1,1.00,0.00,1.1,0.9,1.1,0.9
215, ' 215 ',230,2,1,1,1,1.00,0.00,1.1,0.9,1.1,0.9
216, ' 216 ',230,2,1,1,1,1.00,0.00,1.1,0.9,1.1,0.9
217, ' 217 ',230,1,1,1,1,1.00,0.00,1.1,0.9,1.1,0.9
218, ' 218 ',230,2,1,1,1,1.00,0.00,1.1,0.9,1.1,0.9
219, ' 219 ',230,1,1,1,1,1.00,0.00,1.1,0.9,1.1,0.9
220, ' 220 ',230,1,1,1,1,1.00,0.00,1.1,0.9,1.1,0.9
221, ' 221 ',230,2,1,1,1,1.00,0.00,1.1,0.9,1.1,0.9
222, ' 222 ',230,2,1,1,1,1.00,0.00,1.1,0.9,1.1,0.9
223, ' 223 ',230,2,1,1,1,1.00,0.00,1.1,0.9,1.1,0.9
224, ' 224 ',230,1,1,1,1,1.00,0.00,1.1,0.9,1.1,0.9
301, ' 301 ',138,2,1,1,1,1.00,0.00,1.1,0.9,1.1,0.9
302, ' 302 ',138,2,1,1,1,1.00,0.00,1.1,0.9,1.1,0.9
303, ' 303 ',138,1,1,1,1,1.00,0.00,1.1,0.9,1.1,0.9
304, ' 304 ',138,1,1,1,1,1.00,0.00,1.1,0.9,1.1,0.9
305, ' 305 ',138,1,1,1,1,1.00,0.00,1.1,0.9,1.1,0.9
306, ' 306 ',138,1,1,1,1,1.00,0.00,1.1,0.9,1.1,0.9
307, ' 307 ',138,2,1,1,1,1.00,0.00,1.1,0.9,1.1,0.9
308, ' 308 ',138,1,1,1,1,1.00,0.00,1.1,0.9,1.1,0.9
309, ' 309 ',138,1,1,1,1,1.00,0.00,1.1,0.9,1.1,0.9
310, ' 310 ',138,1,1,1,1,1.00,0.00,1.1,0.9,1.1,0.9
311, ' 311 ',230,1,1,1,1,1.00,0.00,1.1,0.9,1.1,0.9
312, ' 312 ',230,1,1,1,1,1.00,0.00,1.1,0.9,1.1,0.9
313, ' 313 ',230,2,1,1,1,1.00,0.00,1.1,0.9,1.1,0.9
314, ' 314 ',230,2,1,1,1,1.00,0.00,1.1,0.9,1.1,0.9
315, ' 315 ',230,2,1,1,1,1.00,0.00,1.1,0.9,1.1,0.9
316, ' 316 ',230,2,1,1,1,1.00,0.00,1.1,0.9,1.1,0.9
317, ' 317 ',230,1,1,1,1,1.00,0.00,1.1,0.9,1.1,0.9
318, ' 318 ',230,2,1,1,1,1.00,0.00,1.1,0.9,1.1,0.9
319, ' 319 ',230,1,1,1,1,1.00,0.00,1.1,0.9,1.1,0.9
320, ' 320 ',230,1,1,1,1,1.00,0.00,1.1,0.9,1.1,0.9
321, ' 321 ',230,2,1,1,1,1.00,0.00,1.1,0.9,1.1,0.9
322, ' 322 ',230,2,1,1,1,1.00,0.00,1.1,0.9,1.1,0.9
323, ' 323 ',230,2,1,1,1,1.00,0.00,1.1,0.9,1.1,0.9
324, ' 324 ',230,1,1,1,1,1.00,0.00,1.1,0.9,1.1,0.9
325, ' 325 ',230,1,1,1,1,1.00,0.00,1.1,0.9,1.1,0.9
0 / END OF BUS DATA, BEGIN LOAD DATA
101, '1 ',1,11,11,61.33228293222225,10.979164697912335,0.0,0.0,0.0,0.0,1,1,0
102, '1 ',1,11,12,77.17441148984176,16.123693566609173,0.0,0.0,0.0,0.0,1,1,0
103, '1 ',1,11,11,95.50062024226783,31.294968469754842,0.0,0.0,0.0,0.0,1,1,0
104, '1 ',1,11,11,63.62242252945975,12.68838237058511,0.0,0.0,0.0,0.0,1,1,0
105, '1 ',1,11,11,57.2684235247856,10.379377689278405,0.0,0.0,0.0,0.0,1,1,0
106, '1 ',1,11,12,79.47165690970458,20.149555168979802,0.0,0.0,0.0,0.0,1,1,0
107, '1 ',1,11,12,74.3809817360714,13.667635256415231,0.0,0.0,0.0,0.0,1,1,0
108, '1 ',1,11,12,133.52449186324608,22.97026098004589,0.0,0.0,0.0,0.0,1,1,0
109, '1 ',1,11,13,108.5693120342726,18.180781437052598,0.0,0.0,0.0,0.0,1,1,0
110, '1 ',1,11,13,136.39095196912737,32.58630287830532,0.0,0.0,0.0,0.0,1,1,0
111, '1 ',1,11,13,0.0,0.0,0.0,0.0,0.0,0.0,1,1,0
112, '1 ',1,11,13,0.0,0.0,0.0,0.0,0.0,0.0,1,1,0
113, '1 ',1,12,14,130.62134666690324,36.0889321414548,0.0,0.0,0.0,0.0,1,1,0
114, '1 ',1,12,16,137.4481825147505,31.503489791340336,0.0,0.0,0.0,0.0,1,1,0
115, '1 ',1,12,16,271.23928479786923,45.22508860795497,0.0,0.0,0.0,0.0,1,1,0
116, '1 ',1,12,16,85.47568117281888,14.536548469724131,0.0,0.0,0.0,0.0,1,1,0
117, '1 ',1,12,17,0.0,0.0,0.0,0.0,0.0,0.0,1,1,0
118, '1 ',1,12,17,179.87892776596038,39.677389281827395,0.0,0.0,0.0,0.0,1,1,0
119, '1 ',1,12,15,158.3223672918229,23.824692533466543,0.0,0.0,0.0,0.0,1,1,0
120, '1 ',1,12,15,89.16410341899991,22.787423657323796,0.0,0.0,0.0,0.0,1,1,0
121, '1 ',1,12,17,0.0,0.0,0.0,0.0,0.0,0.0,1,1,0
122, '1 ',1,12,17,0.0,0.0,0.0,0.0,0.0,0.0,1,1,0
123, '1 ',1,12,15,0.0,0.0,0.0,0.0,0.0,0.0,1,1,0
124, '1 ',1,12,16,0.0,0.0,0.0,0.0,0.0,0.0,1,1,0
201, '1 ',1,21,21,84.13227167626731,13.79650986632444,0.0,0.0,0.0,0.0,1,1,0
202, '1 ',1,21,22,76.10299866073835,9.800851913957855,0.0,0.0,0.0,0.0,1,1,0
203, '1 ',1,21,21,126.33548949097283,18.30563357968605,0.0,0.0,0.0,0.0,1,1,0
204, '1 ',1,21,21,51.679241957703134,8.350371637319213,0.0,0.0,0.0,0.0,1,1,0
205, '1 ',1,21,21,47.03055172254802,8.667269528739062,0.0,0.0,0.0,0.0,1,1,0
206, '1 ',1,21,22,103.19451463032738,22.943775518756546,0.0,0.0,0.0,0.0,1,1,0
207, '1 ',1,21,22,83.1607164625777,17.81643694396829,0.0,0.0,0.0,0.0,1,1,0
208, '1 ',1,21,22,83.81032572233033,24.1854810568986,0.0,0.0,0.0,0.0,1,1,0
209, '1 ',1,21,23,103.14328940233682,20.584147261828555,0.0,0.0,0.0,0.0,1,1,0
210, '1 ',1,21,23,174.4339047252741,23.889996976610274,0.0,0.0,0.0,0.0,1,1,0
211, '1 ',1,21,23,0.0,0.0,0.0,0.0,0.0,0.0,1,1,0
212, '1 ',1,21,23,0.0,0.0,0.0,0.0,0.0,0.0,1,1,0
213, '1 ',1,22,24,190.56197761102047,44.97914313303251,0.0,0.0,0.0,0.0,1,1,0
214, '1 ',1,22,26,97.319019594716,22.798252951703642,0.0,0.0,0.0,0.0,1,1,0
215, '1 ',1,22,26,259.5982460578564,43.3239182310462,0.0,0.0,0.0,0.0,1,1,0
216, '1 ',1,22,26,50.305198134910306,16.91171284352336,0.0,0.0,0.0,0.0,1,1,0
217, '1 ',1,22,27,0.0,0.0,0.0,0.0,0.0,0.0,1,1,0
218, '1 ',1,22,27,274.4680338248807,50.27686414957065,0.0,0.0,0.0,0.0,1,1,0
219, '1 ',1,22,25,156.63281649447995,19.2985485595508,0.0,0.0,0.0,0.0,1,1,0
220, '1 ',1,22,25,88.85441792047618,19.937820943203384,0.0,0.0,0.0,0.0,1,1,0
221, '1 ',1,22,27,0.0,0.0,0.0,0.0,0.0,0.0,1,1,0
222, '1 ',1,22,27,0.0,0.0,0.0,0.0,0.0,0.0,1,1,0
223, '1 ',1,22,25,0.0,0.0,0.0,0.0,0.0,0.0,1,1,0
224, '1 ',1,22,26,0.0,0.0,0.0,0.0,0.0,0.0,1,1,0
301, '1 ',1,31,31,91.52386997893451,15.588026925526187,0.0,0.0,0.0,0.0,1,1,0
302, '1 ',1,31,32,76.8539986495188,10.488610644215717,0.0,0.0,0.0,0.0,1,1,0
303, '1 ',1,31,31,99.08698095600026,32.796223167335846,0.0,0.0,0.0,0.0,1,1,0
304, '1 ',1,31,31,43.45399915077136,7.391910379062406,0.0,0.0,0.0,0.0,1,1,0
305, '1 ',1,31,31,62.900641821075425,9.285438355285393,0.0,0.0,0.0,0.0,1,1,0
306, '1 ',1,31,32,73.30020144727752,24.686083205152116,0.0,0.0,0.0,0.0,1,1,0
307, '1 ',1,31,32,80.06953251313534,20.95404962983564,0.0,0.0,0.0,0.0,1,1,0
308, '1 ',1,31,32,110.71257816524576,29.69726559440768,0.0,0.0,0.0,0.0,1,1,0
309, '1 ',1,31,33,94.39326056404039,20.699580144797263,0.0,0.0,0.0,0.0,1,1,0
310, '1 ',1,31,33,126.94318181607127,27.78232773093134,0.0,0.0,0.0,0.0,1,1,0
311, '1 ',1,31,33,0.0,0.0,0.0,0.0,0.0,0.0,1,1,0
312, '1 ',1,31,33,0.0,0.0,0.0,0.0,0.0,0.0,1,1,0
313, '1 ',1,32,34,187.21803627319937,39.161460761792675,0.0,0.0,0.0,0.0,1,1,0
314, '1 ',1,32,36,132.14701468875055,23.473655541381518,0.0,0.0,0.0,0.0,1,1,0
315, '1 ',1,32,36,238.9963318436993,46.121739868792886,0.0,0.0,0.0,0.0,1,1,0
316, '1 ',1,32,36,69.61684140266384,17.44376122463867,0.0,0.0,0.0,0.0,1,1,0
317, '1 ',1,32,37,0.0,0.0,0.0,0.0,0.0,0.0,1,1,0
318, '1 ',1,32,37,261.9143737678429,45.30628010994047,0.0,0.0,0.0,0.0,1,1,0
319, '1 ',1,32,35,160.35949383233438,33.32583596925591,0.0,0.0,0.0,0.0,1,1,0
320, '1 ',1,32,35,109.95131069015265,17.194450932508147,0.0,0.0,0.0,0.0,1,1,0
321, '1 ',1,32,37,0.0,0.0,0.0,0.0,0.0,0.0,1,1,0
322, '1 ',1,32,37,0.0,0.0,0.0,0.0,0.0,0.0,1,1,0
323, '1 ',1,32,35,0.0,0.0,0.0,0.0,0.0,0.0,1,1,0
324, '1 ',1,32,36,0.0,0.0,0.0,0.0,0.0,0.0,1,1,0
325, '1 ',1,32,35,0.0,0.0,0.0,0.0,0.0,0.0,1,1,0
0 / END OF LOAD DATA, BEGIN FIXED SHUNT DATA
0 / END OF FIXED SHUNT DATA, BEGIN GENERATOR DATA
101,1,10,0,7.5283992467448115,0.4583305218257019,1.035,0,24,0,1,0,0,1,1,100,24.300462371669713,21.09808437502012,1,1,0,1
101,2,10,0,12.402994768228384,2.0849149036221224,1.035,0,24,0,1,0,0,1,1,100,24.576739273965362,19.122675190018494,1,1,0,1
101,3,76,14.1,37.981684800703086,-14.100129663245745,1.035,0,89,0,1,0,0,1,1,100,95.83612512480467,49.47361493911593,1,1,0,1
101,4,76,14.1,30.829706460703164,-8.192898495821282,1.035,0,89,0,1,0,0,1,1,100,75.18290408942849,14.402274675257516,1,1,0,1
102,5,10,0,9.489023041911423,-3.0708284536376595,1.035,0,24,0,1,0,0,1,1,100,16.158609463833272,12.226088800160216,1,1,0,1
102,6,10,0,8.689211301039904,-2.816983453463763,1.035,0,24,0,1,0,0,1,1,100,17.25889270659536,13.014427677374334,1,1,0,1
102,7,76,7,25.517365098930895,-35.44949047267437,1.035,0,89,0,1,0,0,1,1,100,83.91288675945252,19.046970953159047,1,1,0,1
102,8,76,7,38.98564157355577,-3.9633767758496106,1.035,0,89,0,1,0,0,1,1,100,87.5841280123219,22.377628960721196,1,1,0,1
107,9,80,17.2,49.746956798247986,-10.192576169036336,1.025,0,118,0,1,0,0,1,1,100,120.34788355231285,23.747458716388792,1,1,0,1
107,10,80,17.2,76.98875129409134,17.839565629139543,1.025,0,118,0,1,0,0,1,1,100,73.88015423435718,70.97243041624318,1,1,0,1
107,11,80,17.2,72.70610123500228,-3.4233368933200836,1.025,0,118,0,1,0,0,1,1,100,90.50952437799424,27.81867246492766,1,1,0,1
113,12,95.1,40.7,83.81387915462255,-18.856240153312683,1.02,0,232,0,1,0,0,1,1,100,194.08936883104036,83.28259074304952,1,1,0,1
113,13,95.1,40.7,73.23100579157472,12.879852186888456,1.02,0,232,0,1,0,0,1,1,100,234.08778301859275,71.08701921566853,1,1,0,1
113,14,95.1,40.7,98.51595800742508,28.179815109819188,1.02,0,232,0,1,0,0,1,1,100,228.95603818669917,85.32569246762432,1,1,0,1
114,15,0,13.7,204.41388646140695,-100.88221967453137,0.98,0,100,0,1,0,0,1,1,100,0.0,0.0,1,1,0,1
115,16,12,0,7.13357319496572,0.08271406721323782,1.014,0,14,0,1,0,0,1,1,100,14.378672122769059,6.486824572943153,1,1,0,1
115,17,12,0,5.8865818999707695,-0.9402803546749059,1.014,0,14,0,1,0,0,1,1,100,14.703917766921222,4.019675449691714,1,1,0,1
115,18,12,0,7.237678181659431,3.0095565972849743,1.014,0,14,0,1,0,0,1,1,100,13.567560641840101,1.3108354584127682,1,1,0,1
115,19,12,0,4.944793386943639,-2.6916377062909307,1.014,0,14,0,1,0,0,1,1,100,11.849965854361653,3.133620549067855,1,1,0,1
115,20,12,0,5.564578646700829,0.022151579707861302,1.014,0,14,0,1,0,0,1,1,100,12.514027063362299,2.570871463380753,1,1,0,1
115,21,155,0.05,77.45805042237043,-55.9196285107173,1.014,0,182,0,1,0,0,1,1,100,149.6060540501494,24.498609491728715,1,1,0,1
116,22,155,25.22,67.51285003498197,-77.66594617301598,1.017,0,182,0,1,0,0,1,1,100,200.1890768071171,104.59368047703755,1,1,0,1
118,23,400,137.4,251.9605003669858,-40.90860457858071,1.05,0,471,0,1,0,0,1,1,100,298.44930995255703,11.421432853676322,1,1,0,1
121,24,400,108.2,169.8124921042472,-143.83087574038655,1.05,0,471,0,1,0,0,1,1,100,335.7834376767277,89.96643600519741,1,1,0,1
122,25,50,-4.96,12.070711569488047,-7.8706914984621115,1.05,0,53,0,1,0,0,1,1,100,60.540179039817296,8.914629416540265,1,1,0,1
122,26,50,-4.96,19.362952315062287,-4.927027701027686,1.05,0,53,0,1,0,0,1,1,100,49.85602223314345,23.59942981471199,1,1,0,1
122,27,50,-4.96,17.716916463524104,-8.78251573499292,1.05,0,53,0,1,0,0,1,1,100,64.90356656722724,24.75150855956599,1,1,0,1
122,28,50,-4.96,13.187838391959668,-17.988577212858942,1.05,0,53,0,1,0,0,1,1,100,48.18222179310396,9.77458970155567,1,1,0,1
122,29,50,-4.96,13.746010971814393,-15.207073259167373,1.05,0,53,0,1,0,0,1,1,100,46.05833122273907,19.962636605387033,1,1,0,1
122,30,50,-4.96,12.409768636524676,-9.906770437676458,1.05,0,53,0,1,0,0,1,1,100,40.37391657009721,18.798413933123864,1,1,0,1
123,31,155,31.79,95.65539366006851,-19.528656509239227,1.05,0,182,0,1,0,0,1,1,100,114.03091145982035,39.05453003534349,1,1,0,1
123,32,155,31.79,60.84785182029009,-64.43523800373077,1.05,0,182,0,1,0,0,1,1,100,157.3121239512693,26.526804983348114,1,1,0,1
123,33,350,71.78,160.92544495593756,-3.2206670625600964,1.05,0,412,0,1,0,0,1,1,100,430.4640754428692,173.44031830644235,1,1,0,1
201,34,10,0,8.614745966158807,-2.2699393867515028,1.035,0,24,0,1,0,0,1,1,100,14.682463016360998,10.270214134417476,1,1,0,1
201,35,10,0,9.749373695347458,-2.074339017737657,1.035,0,24,0,1,0,0,1,1,100,14.36715763155371,10.43902265848592,1,1,0,1
201,36,76,14.1,31.123297937214375,-23.99847455741837,1.035,0,89,0,1,0,0,1,1,100,64.96600170060992,3.2383474265038927,1,1,0,1
201,37,76,14.1,32.282186072319746,-34.983990862267106,1.035,0,89,0,1,0,0,1,1,100,86.63330555334687,42.003740910291675,1,1,0,1
202,38,10,0,7.572584480047225,-1.300447190646083,1.035,0,24,0,1,0,0,1,1,100,23.899349060840905,19.693766568237915,1,1,0,1
202,39,10,0,8.297444565221667,-2.627820460125804,1.035,0,24,0,1,0,0,1,1,100,17.943386990576982,12.827116630980747,1,1,0,1
202,40,76,7,21.4379523829557,-45.248851202894016,1.035,0,89,0,1,0,0,1,1,100,88.34467485267669,9.367168244011708,1,1,0,1
202,41,76,7,23.664267437998205,-46.54946009302513,1.035,0,89,0,1,0,0,1,1,100,71.32512150947005,2.121000050343582,1,1,0,1
207,42,80,17.2,58.9932096702978,-10.291467689909041,1.025,0,118,0,1,0,0,1,1,100,118.43773229513317,54.74363139597699,1,1,0,1
207,43,80,17.2,75.95801195595413,17.944430463016033,1.025,0,118,0,1,0,0,1,1,100,82.17698198277503,3.5656339931301773,1,1,0,1
207,44,80,17.2,72.65966410841793,23.10608173906803,1.025,0,118,0,1,0,0,1,1,100,107.99807709176092,23.05312462151049,1,1,0,1
213,45,95.1,40.7,57.48873700201511,-10.49758983403445,1.02,0,232,0,1,0,0,1,1,100,154.723818609491,63.63975723002804,1,1,0,1
213,46,95.1,40.7,99.55103718489408,14.002625282853842,1.02,0,232,0,1,0,0,1,1,100,172.61466027367862,67.34958293084057,1,1,0,1
213,47,95.1,40.7,100.0295295715332,15.228717226535082,1.02,0,232,0,1,0,0,1,1,100,234.54700678014194,142.3296316443989,1,1,0,1
214,48,0,13.68,154.8954719118774,-132.91084156138822,0.98,0,100,0,1,0,0,1,1,100,0.0,0.0,1,1,0,1
215,49,12,0,5.450106757041066,-1.9003622842021288,1.014,0,14,0,1,0,0,1,1,100,10.939227618835865,3.6996802819892753,1,1,0,1
215,50,12,0,7.2465834014117725,-0.3721361654810611,1.014,0,14,0,1,0,0,1,1,100,10.031009221449494,0.5175373687595144,1,1,0,1
215,51,12,0,5.666709437035024,-0.4204935726709671,1.014,0,14,0,1,0,0,1,1,100,11.754858144186436,2.7695167843624944,1,1,0,1
215,52,12,0,5.288549264799803,-1.8356807392090557,1.014,0,14,0,1,0,0,1,1,100,10.896602461114526,3.312654535397888,1,1,0,1
215,53,12,0,5.958911968488247,1.4716033863835047,1.014,0,14,0,1,0,0,1,1,100,12.718528177030386,0.9817553507164138,1,1,0,1
215,54,155,0.048,59.60702897235751,-93.43220054125413,1.014,0,182,0,1,0,0,1,1,100,120.10412325733341,5.441039404482581,1,1,0,1
216,55,155,25.22,76.46065358817577,-23.29634534940122,1.017,0,182,0,1,0,0,1,1,100,158.31776360422373,65.28734092386439,1,1,0,1
218,56,400,137.4,229.49942106381062,7.478734122123598,1.05,0,471,0,1,0,0,1,1,100,447.7169137261808,218.62575914710763,1,1,0,1
221,57,400,108.2,146.9309642445296,-174.5098950574175,1.05,0,471,0,1,0,0,1,1,100,355.15739554539323,103.37334273848683,1,1,0,1
222,58,50,-4.96,17.484109183400868,-9.813555722776801,1.05,0,53,0,1,0,0,1,1,100,44.834132716059685,13.649373151423294,1,1,0,1
222,59,50,-4.96,13.186121167987585,-18.03673085095361,1.05,0,53,0,1,0,0,1,1,100,63.14108933554963,25.902959026861943,1,1,0,1
222,60,50,-4.96,11.475963971763848,-19.44586008805782,1.05,0,53,0,1,0,0,1,1,100,48.84045596700162,2.150915537495166,1,1,0,1
222,61,50,-4.96,20.615367283672093,-3.8788983328267967,1.05,0,53,0,1,0,0,1,1,100,60.588858562987305,24.444276883732535,1,1,0,1
222,62,50,-4.96,17.041297709196805,-15.386461592465643,1.05,0,53,0,1,0,0,1,1,100,46.169482404366136,31.90746941352269,1,1,0,1
222,63,50,-4.96,14.334527426958084,-14.817600582912563,1.05,0,53,0,1,0,0,1,1,100,59.271101448684924,13.65546217421069,1,1,0,1
223,64,155,31.79,73.65319426357746,-79.33600372588262,1.05,0,182,0,1,0,0,1,1,100,110.6636374616064,27.921723799615165,1,1,0,1
223,65,155,31.79,81.45997250080109,-33.56697008898482,1.05,0,182,0,1,0,0,1,1,100,138.74436083761975,67.9736261837883,1,1,0,1
223,66,350,71.78,177.1894256514497,-3.823063292074977,1.05,0,412,0,1,0,0,1,1,100,258.0992201156914,18.49155817599967,1,1,0,1
301,67,10,0,12.452768117189407,3.3642666642554104,1.035,0,24,0,1,0,0,1,1,100,15.526318555697799,12.001056568417699,1,1,0,1
301,68,10,0,11.128164295572788,-1.105481764767319,1.035,0,24,0,1,0,0,1,1,100,14.176221260800956,10.567995474040508,1,1,0,1
301,69,76,14.1,31.564959513489157,-22.430682986741886,1.035,0,89,0,1,0,0,1,1,100,85.30076410602778,32.26435713570566,1,1,0,1
301,70,76,14.1,26.084172550588846,-31.964929769048467,1.035,0,89,0,1,0,0,1,1,100,65.39463859423995,20.166602669954308,1,1,0,1
302,71,10,0,7.957540123257786,-3.5784764201380312,1.035,0,24,0,1,0,0,1,1,100,24.04292771499604,19.595582253569738,1,1,0,1
302,72,10,0,10.847519144881517,-0.5552225145511329,1.035,0,24,0,1,0,0,1,1,100,19.847637147642672,15.011754142604769,1,1,0,1
302,73,76,7,33.34524380369112,-10.529941895510994,1.035,0,89,0,1,0,0,1,1,100,54.98501037769019,0.5980276332050494,1,1,0,1
302,74,76,7,28.06209134683013,-41.786719244206324,1.035,0,89,0,1,0,0,1,1,100,60.008495326340196,29.880953241911776,1,1,0,1
307,75,80,17.2,54.02047852054238,7.377236422151327,1.025,0,118,0,1,0,0,1,1,100,118.59689773526043,54.30069698719308,1,1,0,1
307,76,80,17.2,61.97632692195476,18.817256723530605,1.025,0,118,0,1,0,0,1,1,100,76.45599987357853,35.43185269282611,1,1,0,1
307,77,80,17.2,60.78193702641875,-12.450478878803544,1.025,0,118,0,1,0,0,1,1,100,110.29322669375688,41.06193795450963,1,1,0,1
313,78,95.1,40.7,82.24583397060633,12.193606294691563,1.02,0,232,0,1,0,0,1,1,100,182.53869525375774,50.2945823982474,1,1,0,1
313,79,95.1,40.7,81.98997770622373,-17.301149323582663,1.02,0,232,0,1,0,0,1,1,100,225.5366011847742,103.07339259281058,1,1,0,1
313,80,95.1,40.7,93.89912311732769,34.17471018433571,1.02,0,232,0,1,0,0,1,1,100,195.65032936646605,33.64384367003106,1,1,0,1
314,81,0,13.68,171.07037099078298,-110.21399462595582,0.98,0,100,0,1,0,0,1,1,100,0.0,0.0,1,1,0,1
315,82,12,0,6.973995619732886,0.02369242999702692,1.014,0,14,0,1,0,0,1,1,100,12.38848634585738,1.6048290297389016,1,1,0,1
315,83,12,0,5.9024160509929064,-1.4806095837615434,1.014,0,14,0,1,0,0,1,1,100,9.70755479838699,7.912558728754868,1,1,0,1
315,84,12,0,5.722128834016621,-1.1280996495857831,1.014,0,14,0,1,0,0,1,1,100,15.2047754438594,6.766339908577503,1,1,0,1
315,85,12,0,4.871255426667631,-0.060775118786841276,1.014,0,14,0,1,0,0,1,1,100,8.937508247606456,1.0205444147810336,1,1,0,1
315,86,12,0,6.949385637044906,-0.21698927097022658,1.014,0,14,0,1,0,0,1,1,100,11.770513252727689,2.675699504725637,1,1,0,1
315,87,155,0.048,81.83792144432664,-52.295488335657865,1.014,0,182,0,1,0,0,1,1,100,194.27608110802248,112.65224191768793,1,1,0,1
316,88,155,25.22,64.79130955412984,-102.53032444324344,1.017,0,182,0,1,0,0,1,1,100,166.27667012414895,87.64194653305458,1,1,0,1
318,89,400,137.4,144.16867678985,-126.1024725693278,1.05,0,471,0,1,0,0,1,1,100,342.2652153111994,209.2698135308651,1,1,0,1
321,90,400,108.2,171.81515150703487,-106.46361146820712,1.05,0,471,0,1,0,0,1,1,100,319.5917200297117,88.6949023248182,1,1,0,1
322,91,50,-4.96,18.14599039629102,-11.040007999446242,1.05,0,53,0,1,0,0,1,1,100,63.7740614102222,10.570627420675017,1,1,0,1
322,92,50,-4.96,12.766910515725613,-20.545875513087957,1.05,0,53,0,1,0,0,1,1,100,64.37592111062258,17.744093807414174,1,1,0,1
322,93,50,-4.96,14.820599526166916,-16.972077494114636,1.05,0,53,0,1,0,0,1,1,100,58.605345780961215,16.76873569143936,1,1,0,1
322,94,50,-4.96,12.550522630661725,-11.501646879129115,1.05,0,53,0,1,0,0,1,1,100,42.86494323750958,38.51142935511439,1,1,0,1
322,95,50,-4.96,11.304910937696695,-16.09617769643664,1.05,0,53,0,1,0,0,1,1,100,48.77078567864373,29.232747327594726,1,1,0,1
322,96,50,-4.96,17.90904865860939,-6.727431959379466,1.05,0,53,0,1,0,0,1,1,100,37.74432996055111,21.189504243824473,1,1,0,1
323,97,155,31.79,98.61303148791194,-34.90999197214842,1.05,0,182,0,1,0,0,1,1,100,113.25314153567888,28.15103582267183,1,1,0,1
323,98,155,31.79,100.82327026501298,-30.95877543464303,1.05,0,182,0,1,0,0,1,1,100,115.44251548708417,0.3468942910083541,1,1,0,1
323,99,350,71.78,155.593118655961,1.415931989904493,1.05,0,412,0,1,0,0,1,1,100,330.72274641133845,121.72746708989143,1,1,0,1
0 / END OF GENERATOR DATA, BEGIN BRANCH DATA
101,102,1,0.003,0.014,0.461,210.0,231.6,240.0,0,0,0,0,1,1,0,1,1
101,103,1,0.055,0.211,0.057,210.0,249.6,264.0,0,0,0,0,1,1,0,1,1
101,105,1,0.022,0.085,0.023,210.0,249.6,264.0,0,0,0,0,1,1,0,1,1
102,104,1,0.033,0.127,0.034,210.0,249.6,264.0,0,0,0,0,1,1,0,1,1
102,106,1,0.05,0.192,0.052,210.0,249.6,264.0,0,0,0,0,1,1,0,1,1
103,109,1,0.031,0.119,0.032,210.0,249.6,264.0,0,0,0,0,1,1,0,1,1
104,109,1,0.027,0.104,0.028,210.0,249.6,264.0,0,0,0,0,1,1,0,1,1
105,110,1,0.023,0.088,0.024,210.0,249.6,264.0,0,0,0,0,1,1,0,1,1
106,110,1,0.014,0.061,2.459,210.0,231.6,240.0,0,0,0,0,1,1,0,1,1
107,108,1,0.016,0.061,0.017,210.0,249.6,264.0,0,0,0,0,1,1,0,1,1
107,203,1,0.042,0.161,0.044,210.0,249.6,264.0,0,0,0,0,1,1,0,1,1
108,109,1,0.043,0.165,0.045,210.0,249.6,264.0,0,0,0,0,1,1,0,1,1
108,110,1,0.043,0.165,0.045,210.0,249.6,264.0,0,0,0,0,1,1,0,1,1
111,113,1,0.006,0.048,0.1,600.0,720.0,750.0,0,0,0,0,1,1,0,1,1
111,114,1,0.005,0.042,0.088,600.0,720.0,750.0,0,0,0,0,1,1,0,1,1
112,113,1,0.006,0.048,0.1,600.0,720.0,750.0,0,0,0,0,1,1,0,1,1
112,123,1,0.012,0.097,0.203,600.0,720.0,750.0,0,0,0,0,1,1,0,1,1
113,123,1,0.011,0.087,0.182,600.0,720.0,750.0,0,0,0,0,1,1,0,1,1
113,215,1,0.01,0.075,0.158,600.0,720.0,750.0,0,0,0,0,1,1,0,1,1
114,116,1,0.005,0.059,0.082,600.0,720.0,750.0,0,0,0,0,1,1,0,1,1
115,116,1,0.002,0.017,0.036,600.0,720.0,750.0,0,0,0,0,1,1,0,1,1
115,121,1,0.006,0.049,0.103,600.0,720.0,750.0,0,0,0,0,1,1,0,1,1
115,121,2,0.006,0.049,0.103,600.0,720.0,750.0,0,0,0,0,1,1,0,1,1
115,124,1,0.007,0.052,0.109,600.0,720.0,750.0,0,0,0,0,1,1,0,1,1
116,117,1,0.003,0.026,0.055,600.0,720.0,750.0,0,0,0,0,1,1,0,1,1
116,119,1,0.003,0.023,0.049,600.0,720.0,750.0,0,0,0,0,1,1,0,1,1
117,118,1,0.002,0.014,0.03,600.0,720.0,750.0,0,0,0,0,1,1,0,1,1
117,122,1,0.014,0.105,0.221,600.0,720.0,750.0,0,0,0,0,1,1,0,1,1
118,121,1,0.003,0.026,0.055,600.0,720.0,750.0,0,0,0,0,1,1,0,1,1
118,121,2,0.003,0.026,0.055,600.0,720.0,750.0,0,0,0,0,1,1,0,1,1
119,120,1,0.005,0.04,0.083,600.0,720.0,750.0,0,0,0,0,1,1,0,1,1
119,120,2,0.005,0.04,0.083,600.0,720.0,750.0,0,0,0,0,1,1,0,1,1
120,123,1,0.003,0.022,0.046,600.0,720.0,750.0,0,0,0,0,1,1,0,1,1
120,123,2,0.003,0.022,0.046,600.0,720.0,750.0,0,0,0,0,1,1,0,1,1
121,122,1,0.009,0.068,0.142,600.0,720.0,750.0,0,0,0,0,1,1,0,1,1
123,217,1,0.01,0.074,0.155,600.0,720.0,750.0,0,0,0,0,1,1,0,1,1
201,202,1,0.003,0.014,0.461,210.0,231.6,240.0,0,0,0,0,1,1,0,1,1
201,203,1,0.055,0.211,0.057,210.0,249.6,264.0,0,0,0,0,1,1,0,1,1
201,205,1,0.022,0.085,0.023,210.0,249.6,264.0,0,0,0,0,1,1,0,1,1
202,204,1,0.033,0.127,0.034,210.0,249.6,264.0,0,0,0,0,1,1,0,1,1
202,206,1,0.05,0.192,0.052,210.0,249.6,264.0,0,0,0,0,1,1,0,1,1
203,209,1,0.031,0.119,0.032,210.0,249.6,264.0,0,0,0,0,1,1,0,1,1
204,209,1,0.027,0.104,0.028,210.0,249.6,264.0,0,0,0,0,1,1,0,1,1
205,210,1,0.023,0.088,0.024,210.0,249.6,264.0,0,0,0,0,1,1,0,1,1
206,210,1,0.014,0.061,2.459,210.0,231.6,240.0,0,0,0,0,1,1,0,1,1
207,208,1,0.016,0.061,0.017,210.0,249.6,264.0,0,0,0,0,1,1,0,1,1
208,209,1,0.043,0.165,0.045,210.0,249.6,264.0,0,0,0,0,1,1,0,1,1
208,210,1,0.043,0.165,0.045,210.0,249.6,264.0,0,0,0,0,1,1,0,1,1
211,213,1,0.006,0.048,0.1,600.0,720.0,750.0,0,0,0,0,1,1,0,1,1
211,214,1,0.005,0.042,0.088,600.0,720.0,750.0,0,0,0,0,1,1,0,1,1
212,213,1,0.006,0.048,0.1,600.0,720.0,750.0,0,0,0,0,1,1,0,1,1
212,223,1,0.012,0.097,0.203,600.0,720.0,750.0,0,0,0,0,1,1,0,1,1
213,223,1,0.011,0.087,0.182,600.0,720.0,750.0,0,0,0,0,1,1,0,1,1
214,216,1,0.005,0.059,0.082,600.0,720.0,750.0,0,0,0,0,1,1,0,1,1
215,216,1,0.002,0.017,0.036,600.0,720.0,750.0,0,0,0,0,1,1,0,1,1
215,221,1,0.006,0.049,0.103,600.0,720.0,750.0,0,0,0,0,1,1,0,1,1
215,221,2,0.006,0.049,0.103,600.0,720.0,750.0,0,0,0,0,1,1,0,1,1
215,224,1,0.007,0.052,0.109,600.0,720.0,750.0,0,0,0,0,1,1,0,1,1
216,217,1,0.003,0.026,0.055,600.0,720.0,750.0,0,0,0,0,1,1,0,1,1
216,219,1,0.003,0.023,0.049,600.0,720.0,750.0,0,0,0,0,1,1,0,1,1
217,218,1,0.002,0.014,0.03,600.0,720.0,750.0,0,0,0,0,1,1,0,1,1
217,222,1,0.014,0.105,0.221,600.0,720.0,750.0,0,0,0,0,1,1,0,1,1
218,221,1,0.003,0.026,0.055,600.0,720.0,750.0,0,0,0,0,1,1,0,1,1
218,221,2,0.003,0.026,0.055,600.0,720.0,750.0,0,0,0,0,1,1,0,1,1
219,220,1,0.005,0.04,0.083,600.0,720.0,750.0,0,0,0,0,1,1,0,1,1
219,220,2,0.005,0.04,0.083,600.0,720.0,750.0,0,0,0,0,1,1,0,1,1
220,223,1,0.003,0.022,0.046,600.0,720.0,750.0,0,0,0,0,1,1,0,1,1
220,223,2,0.003,0.022,0.046,600.0,720.0,750.0,0,0,0,0,1,1,0,1,1
221,222,1,0.009,0.068,0.142,600.0,720.0,750.0,0,0,0,0,1,1,0,1,1
301,302,1,0.003,0.014,0.461,210.0,231.6,240.0,0,0,0,0,1,1,0,1,1
301,303,1,0.055,0.211,0.057,210.0,249.6,264.0,0,0,0,0,1,1,0,1,1
301,305,1,0.022,0.085,0.023,210.0,249.6,264.0,0,0,0,0,1,1,0,1,1
302,304,1,0.033,0.127,0.034,210.0,249.6,264.0,0,0,0,0,1,1,0,1,1
302,306,1,0.05,0.192,0.052,210.0,249.6,264.0,0,0,0,0,1,1,0,1,1
303,309,1,0.031,0.119,0.032,210.0,249.6,264.0,0,0,0,0,1,1,0,1,1
304,309,1,0.027,0.104,0.028,210.0,249.6,264.0,0,0,0,0,1,1,0,1,1
305,310,1,0.023,0.088,0.024,210.0,249.6,264.0,0,0,0,0,1,1,0,1,1
306,310,1,0.014,0.061,2.459,210.0,231.6,240.0,0,0,0,0,1,1,0,1,1
307,308,1,0.016,0.061,0.017,210.0,249.6,264.0,0,0,0,0,1,1,0,1,1
308,309,1,0.043,0.165,0.045,210.0,249.6,264.0,0,0,0,0,1,1,0,1,1
308,310,1,0.043,0.165,0.045,210.0,249.6,264.0,0,0,0,0,1,1,0,1,1
311,313,1,0.006,0.048,0.1,600.0,720.0,750.0,0,0,0,0,1,1,0,1,1
311,314,1,0.005,0.042,0.088,600.0,720.0,750.0,0,0,0,0,1,1,0,1,1
312,313,1,0.006,0.048,0.1,600.0,720.0,750.0,0,0,0,0,1,1,0,1,1
312,323,1,0.012,0.097,0.203,600.0,720.0,750.0,0,0,0,0,1,1,0,1,1
313,323,1,0.011,0.087,0.182,600.0,720.0,750.0,0,0,0,0,1,1,0,1,1
314,316,1,0.005,0.059,0.082,600.0,720.0,750.0,0,0,0,0,1,1,0,1,1
315,316,1,0.002,0.017,0.036,600.0,720.0,750.0,0,0,0,0,1,1,0,1,1
315,321,1,0.006,0.049,0.103,600.0,720.0,750.0,0,0,0,0,1,1,0,1,1
315,321,2,0.006,0.049,0.103,600.0,720.0,750.0,0,0,0,0,1,1,0,1,1
315,324,1,0.007,0.052,0.109,600.0,720.0,750.0,0,0,0,0,1,1,0,1,1
316,317,1,0.003,0.026,0.055,600.0,720.0,750.0,0,0,0,0,1,1,0,1,1
316,319,1,0.003,0.023,0.049,600.0,720.0,750.0,0,0,0,0,1,1,0,1,1
317,318,1,0.002,0.014,0.03,600.0,720.0,750.0,0,0,0,0,1,1,0,1,1
317,322,1,0.014,0.105,0.221,600.0,720.0,750.0,0,0,0,0,1,1,0,1,1
318,223,1,0.013,0.104,0.218,600.0,720.0,750.0,0,0,0,0,1,1,0,1,1
318,321,1,0.003,0.026,0.055,600.0,720.0,750.0,0,0,0,0,1,1,0,1,1
318,321,2,0.003,0.026,0.055,600.0,720.0,750.0,0,0,0,0,1,1,0,1,1
319,320,1,0.005,0.04,0.083,600.0,720.0,750.0,0,0,0,0,1,1,0,1,1
319,320,2,0.005,0.04,0.083,600.0,720.0,750.0,0,0,0,0,1,1,0,1,1
320,323,1,0.003,0.022,0.046,600.0,720.0,750.0,0,0,0,0,1,1,0,1,1
320,323,2,0.003,0.022,0.046,600.0,720.0,750.0,0,0,0,0,1,1,0,1,1
321,322,1,0.009,0.068,0.142,600.0,720.0,750.0,0,0,0,0,1,1,0,1,1
323,325,1,0,0.009,0,866.4,1071.6,1071.6,0,0,0,0,1,1,0,1,1
325,121,1,0.012,0.097,0.203,600.0,720.0,750.0,0,0,0,0,1,1,0,1,1
0 / END OF BRANCH DATA, BEGIN TRANSFORMER DATA
  103 ,  124 , 0,  1 , 1, 1, 1, 0, 0, 2, '            ',  1 , 1, 1
   0.002000 ,  0.084000 ,  100.000000
   1.015000 , 0,  0.000000 ,  400.000000 ,  510.000000 ,  600.000000 , 0, 0,  1.10 ,  0.90 ,  1.10 ,  0.90 , 33, 0, 0, 0
   1.000000, 0
  109 ,  111 , 0,  1 , 1, 1, 1, 0, 0, 2, '            ',  1 , 1, 1
   0.002000 ,  0.084000 ,  100.000000
   1.030000 , 0,  0.000000 ,  400.000000 ,  510.000000 ,  600.000000 , 0, 0,  1.10 ,  0.90 ,  1.10 ,  0.90 , 33, 0, 0, 0
   1.000000, 0
  109 ,  112 , 0,  1 , 1, 1, 1, 0, 0, 2, '            ',  1 , 1, 1
   0.002000 ,  0.084000 ,  100.000000
   1.030000 , 0,  0.000000 ,  400.000000 ,  510.000000 ,  600.000000 , 0, 0,  1.10 ,  0.90 ,  1.10 ,  0.90 , 33, 0, 0, 0
   1.000000, 0
  110 ,  111 , 0,  1 , 1, 1, 1, 0, 0, 2, '            ',  1 , 1, 1
   0.002000 ,  0.084000 ,  100.000000
   1.015000 , 0,  0.000000 ,  400.000000 ,  510.000000 ,  600.000000 , 0, 0,  1.10 ,  0.90 ,  1.10 ,  0.90 , 33, 0, 0, 0
   1.000000, 0
  110 ,  112 , 0,  1 , 1, 1, 1, 0, 0, 2, '            ',  1 , 1, 1
   0.002000 ,  0.084000 ,  100.000000
   1.015000 , 0,  0.000000 ,  400.000000 ,  510.000000 ,  600.000000 , 0, 0,  1.10 ,  0.90 ,  1.10 ,  0.90 , 33, 0, 0, 0
   1.000000, 0
  203 ,  224 , 0,  1 , 1, 1, 1, 0, 0, 2, '            ',  1 , 1, 1
   0.002000 ,  0.084000 ,  100.000000
   1.015000 , 0,  0.000000 ,  400.000000 ,  510.000000 ,  600.000000 , 0, 0,  1.10 ,  0.90 ,  1.10 ,  0.90 , 33, 0, 0, 0
   1.000000, 0
  209 ,  211 , 0,  1 , 1, 1, 1, 0, 0, 2, '            ',  1 , 1, 1
   0.002000 ,  0.084000 ,  100.000000
   1.030000 , 0,  0.000000 ,  400.000000 ,  510.000000 ,  600.000000 , 0, 0,  1.10 ,  0.90 ,  1.10 ,  0.90 , 33, 0, 0, 0
   1.000000, 0
  209 ,  212 , 0,  1 , 1, 1, 1, 0, 0, 2, '            ',  1 , 1, 1
   0.002000 ,  0.084000 ,  100.000000
   1.030000 , 0,  0.000000 ,  400.000000 ,  510.000000 ,  600.000000 , 0, 0,  1.10 ,  0.90 ,  1.10 ,  0.90 , 33, 0, 0, 0
   1.000000, 0
  210 ,  211 , 0,  1 , 1, 1, 1, 0, 0, 2, '            ',  1 , 1, 1
   0.002000 ,  0.084000 ,  100.000000
   1.015000 , 0,  0.000000 ,  400.000000 ,  510.000000 ,  600.000000 , 0, 0,  1.10 ,  0.90 ,  1.10 ,  0.90 , 33, 0, 0, 0
   1.000000, 0
  210 ,  212 , 0,  1 , 1, 1, 1, 0, 0, 2, '            ',  1 , 1, 1
   0.002000 ,  0.084000 ,  100.000000
   1.015000 , 0,  0.000000 ,  400.000000 ,  510.000000 ,  600.000000 , 0, 0,  1.10 ,  0.90 ,  1.10 ,  0.90 , 33, 0, 0, 0
   1.000000, 0
  303 ,  324 , 0,  1 , 1, 1, 1, 0, 0, 2, '            ',  1 , 1, 1
   0.002000 ,  0.084000 ,  100.000000
   1.015000 , 0,  0.000000 ,  400.000000 ,  510.000000 ,  600.000000 , 0, 0,  1.10 ,  0.90 ,  1.10 ,  0.90 , 33, 0, 0, 0
   1.000000, 0
  309 ,  311 , 0,  1 , 1, 1, 1, 0, 0, 2, '            ',  1 , 1, 1
   0.002000 ,  0.084000 ,  100.000000
   1.030000 , 0,  0.000000 ,  400.000000 ,  510.000000 ,  600.000000 , 0, 0,  1.10 ,  0.90 ,  1.10 ,  0.90 , 33, 0, 0, 0
   1.000000, 0
  309 ,  312 , 0,  1 , 1, 1, 1, 0, 0, 2, '            ',  1 , 1, 1
   0.002000 ,  0.084000 ,  100.000000
   1.030000 , 0,  0.000000 ,  400.000000 ,  510.000000 ,  600.000000 , 0, 0,  1.10 ,  0.90 ,  1.10 ,  0.90 , 33, 0, 0, 0
   1.000000, 0
  310 ,  311 , 0,  1 , 1, 1, 1, 0, 0, 2, '            ',  1 , 1, 1
   0.002000 ,  0.084000 ,  100.000000
   1.015000 , 0,  0.000000 ,  400.000000 ,  510.000000 ,  600.000000 , 0, 0,  1.10 ,  0.90 ,  1.10 ,  0.90 , 33, 0, 0, 0
   1.000000, 0
  310 ,  312 , 0,  1 , 1, 1, 1, 0, 0, 2, '            ',  1 , 1, 1
   0.002000 ,  0.084000 ,  100.000000
   1.015000 , 0,  0.000000 ,  400.000000 ,  510.000000 ,  600.000000 , 0, 0,  1.10 ,  0.90 ,  1.10 ,  0.90 , 33, 0, 0, 0
   1.000000, 0
0 / END OF TRANSFORMER DATA, BEGIN AREA DATA
0 / END OF AREA DATA, BEGIN TWO-TERMINAL DC DATA
0 / END OF TWO-TERMINAL DC DATA, BEGIN VSC DC LINE DATA
0 / END OF VSC DC LINE DATA, BEGIN SWITCHED SHUNT DATA
0 / END OF SWITCHED SHUNT DATA, BEGIN IMPEDANCE CORRECTION DATA
0 / END OF IMPEDANCE CORRECTION DATA, BEGIN MULTI-TERMINAL DC DATA
0 / END OF MULTI-TERMINAL DC DATA, BEGIN MULTI-SECTION LINE DATA
0 / END OF MULTI-SECTION LINE DATA, BEGIN ZONE DATA
0 / END OF ZONE DATA, BEGIN INTER-AREA TRANSFER DATA
0 / END OF INTER-AREA TRANSFER DATA, BEGIN OWNER DATA
0 / END OF OWNER DATA, BEGIN FACTS CONTROL DEVICE DATA
0 / END OF FACTS CONTROL DEVICE DATA
0 / END OF SWITCHED SHUNT DATA, BEGIN GNE DATA
0 / END OF GNE DATA, BEGIN INDUCTION MACHINE DATA
0 / END OF INDUCTION MACHINE DATA
Q 
